Version 4
SHEET 1 880 1108
WIRE -528 16 -576 16
WIRE -784 48 -864 48
WIRE -624 48 -624 0
WIRE -624 48 -688 48
WIRE -576 48 -576 16
WIRE -576 48 -624 48
WIRE -528 48 -576 48
WIRE 576 48 576 0
WIRE 720 48 720 0
WIRE 48 64 0 64
WIRE 304 64 272 64
WIRE -832 128 -976 128
WIRE 48 128 16 128
WIRE 304 128 272 128
WIRE 576 160 576 128
WIRE 720 160 720 128
WIRE -976 192 -976 128
WIRE -944 192 -976 192
WIRE 48 192 16 192
WIRE 304 192 272 192
WIRE -832 208 -832 128
WIRE -832 208 -880 208
WIRE -736 208 -736 112
WIRE -736 208 -832 208
WIRE -944 224 -1008 224
WIRE 48 256 16 256
WIRE -496 560 -544 560
WIRE -288 560 -416 560
WIRE -96 592 -96 576
WIRE -96 592 -192 592
WIRE -96 624 -96 592
WIRE -640 656 -848 656
WIRE -544 656 -544 560
WIRE -544 656 -560 656
WIRE -528 656 -544 656
WIRE -288 672 -288 560
WIRE -288 672 -464 672
WIRE -160 672 -288 672
WIRE 0 720 -96 720
WIRE 112 720 0 720
WIRE 0 752 0 720
WIRE -192 864 -192 592
WIRE -144 864 -192 864
WIRE 0 864 0 832
WIRE 0 864 -80 864
WIRE -192 960 -192 864
WIRE -176 960 -192 960
WIRE 0 976 0 864
WIRE 0 976 -112 976
WIRE -176 992 -208 992
WIRE -208 1040 -208 992
FLAG -624 112 0
FLAG 576 160 0
FLAG 576 0 VCC
FLAG 304 64 VCC
FLAG 0 64 0
FLAG -864 48 VCC
FLAG -624 0 cap
FLAG 112 624 cap
FLAG -208 1040 0
FLAG -528 688 0
FLAG -928 656 0
FLAG 720 160 0
FLAG 720 0 -VCC
FLAG -96 496 VCC
FLAG -144 944 VCC
FLAG -496 640 VCC
FLAG -496 704 0
FLAG -144 1008 0
FLAG -912 176 VCC
FLAG -912 240 -VCC
FLAG 16 256 VCC
FLAG 336 256 0
FLAG 304 128 DIS
FLAG 176 672 0
FLAG 16 128 TRIG
FLAG 16 192 OUT
FLAG 304 192 THRS
FLAG -528 16 THRS
FLAG -528 48 TRIG
FLAG -1008 224 OUT
SYMBOL Misc\\NE555 160 160 R0
SYMATTR InstName U1
SYMBOL cap -640 48 R0
SYMATTR InstName C1
SYMATTR Value 10n
SYMBOL voltage 576 32 R0
WINDOW 123 0 0 Left 0
WINDOW 39 0 0 Left 0
SYMATTR InstName V1
SYMATTR Value 5
SYMBOL npn -784 112 R270
SYMATTR InstName Q3
SYMBOL npn -160 624 R0
SYMATTR InstName Q1
SYMBOL npn 176 624 M0
SYMATTR InstName Q2
SYMBOL res -112 480 R0
SYMATTR InstName R1
SYMATTR Value 1000K
SYMBOL OpAmps\\UniversalOpAmp -144 976 R0
SYMATTR InstName U2
SYMBOL res -16 736 R0
SYMATTR InstName R2
SYMATTR Value 10k
SYMBOL OpAmps\\UniversalOpAmp -496 672 R0
SYMATTR InstName U3
SYMBOL voltage -832 656 R90
WINDOW 0 -32 56 VBottom 2
WINDOW 3 32 56 Invisible 2
WINDOW 123 0 0 Left 0
WINDOW 39 0 0 Left 0
SYMATTR InstName V4
SYMATTR Value PWL(0.1 0 0.2 1 0.3 2 0.4 3 0.5 4 0.6 5 0.7 6 0.8 7 0.9 8 1 9 1.1 10)
SYMBOL res -544 640 R90
WINDOW 0 0 56 VBottom 2
WINDOW 3 32 56 VTop 2
SYMATTR InstName R3
SYMATTR Value 100K
SYMBOL res -400 544 R90
WINDOW 0 0 56 VBottom 2
WINDOW 3 32 56 VTop 2
SYMATTR InstName R4
SYMATTR Value 2K
SYMBOL voltage 720 144 R180
WINDOW 0 24 96 Left 2
WINDOW 3 24 16 Left 2
WINDOW 123 0 0 Left 0
WINDOW 39 0 0 Left 0
SYMATTR InstName V3
SYMATTR Value 5
SYMBOL cap -80 848 R90
WINDOW 0 0 32 VBottom 2
WINDOW 3 32 32 VTop 2
SYMATTR InstName C2
SYMATTR Value 100n
SYMBOL OpAmps\\UniversalOpAmp -912 208 R0
SYMATTR InstName U4
SYMBOL cap 336 240 R90
WINDOW 0 0 32 VBottom 2
WINDOW 3 32 32 VTop 2
SYMATTR InstName C3
SYMATTR Value 100n
TEXT -688 936 Left 2 !.tran 0 1 0 0.001
